Version 4.1
SHEET 1 888 680
WIRE 832 -464 112 -464
WIRE 112 -272 112 -464
WIRE 240 -272 112 -272
WIRE 704 -272 320 -272
WIRE 704 -256 704 -272
WIRE 256 -224 192 -224
WIRE 400 -224 304 -224
WIRE 832 -176 832 -464
WIRE 192 -144 192 -224
WIRE 240 -144 192 -144
WIRE 400 -144 400 -224
WIRE 400 -144 320 -144
WIRE 400 -112 400 -144
WIRE 704 -64 704 -176
WIRE 784 -64 704 -64
WIRE 832 -64 832 -96
WIRE 832 -64 784 -64
WIRE 784 -32 784 -64
WIRE 192 0 192 -144
WIRE 144 80 16 80
WIRE 16 96 16 80
WIRE 16 192 16 176
WIRE 192 192 192 96
WIRE 192 192 16 192
WIRE 400 192 400 -32
WIRE 400 192 192 192
WIRE 192 224 192 192
FLAG 192 224 0
FLAG 784 -32 0
SYMBOL nmos 144 0 R0
SYMATTR InstName M1
SYMATTR Value alfredpapi
SYMBOL voltage 16 80 R0
WINDOW 123 0 0 Left 0
WINDOW 39 0 0 Left 0
WINDOW 3 -289 -605 Left 2
SYMATTR InstName V1
SYMATTR Value PULSE(0 3.3 1m 1u 1u 10m 20m)
SYMBOL voltage 400 -128 R0
SYMATTR InstName V2
SYMATTR Value 12
SYMBOL sw 224 -272 R270
SYMATTR InstName S1
SYMATTR Value requeson
SYMBOL ind 336 -160 R90
WINDOW 0 5 56 VBottom 2
WINDOW 3 32 56 VTop 2
SYMATTR InstName L1
SYMATTR Value 100m
SYMATTR SpiceLine Rser=400
SYMBOL voltage 704 -272 R0
WINDOW 123 0 0 Left 0
WINDOW 39 0 0 Left 0
SYMATTR InstName V3
SYMATTR Value 12
SYMBOL res 816 -192 R0
SYMATTR InstName R1
SYMATTR Value 30
TEXT -16 248 Left 2 !.tran 100m
TEXT -280 -496 Left 2 !.model alfredpapi VDMOS(Rg=3 Vto=1.5 Rd=0.1 Rs=0.1 Rb=0.05 Kp=5 Cgs=50p Cgd=10p)
TEXT -280 -560 Left 2 !.model requeson SW(Vt=6 Vh=1 Ron=0.1 Roff=1G)
